
#######################################################################
#
#                 Cambridge Crystallographic Data Centre
#                                CCDC 
#
#######################################################################
#
# If this CIF has been generated directly or indirectly from an entry in the 
# Cambridge Structural Database, then it will include bibliographic, chemical, 
# crystal, experimental, refinement or atomic coordinate data resulting from 
# the CCDC's data processing and validation procedures. Files generated from 
# CSD entries are Copyright 2022 Cambridge Crystallographic Data Centre. They 
# may be used in bona fide research applications only, and may not be copied or 
# further disseminated in any form, whether machine-readable or not, except for 
# the purposes of generating routine backup copies on your local computer 
# system.
# 
# Files arising from any other source may also contain material that is the 
# copyright of third parties, including the originator, and you should check 
# with the originator concerning the permitted uses of the information 
# contained in this CIF.
#
# For further information on the CCDC and the free tools enCIFer and Mercury
# for validating and visualising CIF files, please visit www.ccdc.cam.ac.uk
#
#######################################################################

data_aII-QA_ED
_symmetry_cell_setting           monoclinic
_symmetry_space_group_name_H-M   'P 21/c'
_symmetry_Int_Tables_number      14
loop_
_symmetry_equiv_pos_site_id
_symmetry_equiv_pos_as_xyz
1 x,y,z
2 -x,1/2+y,1/2-z
3 -x,-y,-z
4 x,1/2-y,1/2+z
_cell_length_a                   7.0500
_cell_length_b                   28.4000
_cell_length_c                   3.9000
_cell_angle_alpha                90.0000
_cell_angle_beta                 110.0000
_cell_angle_gamma                90.0000
_cell_volume                     733.767
loop_
_atom_site_label
_atom_site_type_symbol
_atom_site_fract_x
_atom_site_fract_y
_atom_site_fract_z
C10 C 0.69853 -0.0021 0.02947
H10 H 0.83474 -0.0046 0.05949
O1 O 0.05138 -0.07559 -0.33275
N1 N 0.64308 -0.07881 -0.23643
H1 H 0.76852 -0.07983 -0.21444
C01 C 0.20191 -0.15485 -0.60387
H01 H 0.06605 -0.15504 -0.62842
C02 C 0.27795 -0.19316 -0.72753
H02 H 0.196 -0.21858 -0.83519
C03 C 0.49136 -0.19272 -0.68469
H03 H 0.54737 -0.21723 -0.77636
C04 C 0.60829 -0.15575 -0.50811
H04 H 0.74599 -0.15672 -0.46866
C05 C 0.5313 -0.11729 -0.38534
C06 C 0.31705 -0.11533 -0.44359
C07 C 0.57926 -0.0387 -0.11936
C08 C 0.36598 -0.03755 -0.15308
C09 C 0.23933 -0.07607 -0.31151
C10 C 0.30147 0.0021 -0.02947
H10 H 0.16526 0.0046 -0.05949
O1 O 0.94862 0.07559 0.33275
N1 N 0.35692 0.07881 0.23643
H1 H 0.23148 0.07983 0.21444
C01 C 0.79809 0.15485 0.60387
H01 H 0.93395 0.15504 0.62842
C02 C 0.72205 0.19316 0.72753
H02 H 0.804 0.21858 0.83519
C03 C 0.50864 0.19272 0.68469
H03 H 0.45263 0.21723 0.77636
C04 C 0.39171 0.15575 0.50811
H04 H 0.25401 0.15672 0.46866
C05 C 0.4687 0.11729 0.38534
C06 C 0.68295 0.11533 0.44359
C07 C 0.42074 0.0387 0.11936
C08 C 0.63402 0.03755 0.15308
C09 C 0.76067 0.07607 0.31151
C10 C 0.69853 -0.0021 1.02947
H10 H 0.83474 -0.0046 1.05949
O1 O 0.05138 -0.07559 0.66725
N1 N 0.64308 -0.07881 0.76357
H1 H 0.76852 -0.07983 0.78556
C01 C 0.20191 -0.15485 0.39613
H01 H 0.06605 -0.15504 0.37158
C02 C 0.27795 -0.19316 0.27247
H02 H 0.196 -0.21858 0.16481
C03 C 0.49136 -0.19272 0.31531
H03 H 0.54737 -0.21723 0.22364
C04 C 0.60829 -0.15575 0.49189
H04 H 0.74599 -0.15672 0.53134
C05 C 0.5313 -0.11729 0.61466
C06 C 0.31705 -0.11533 0.55641
C07 C 0.57926 -0.0387 0.88064
C08 C 0.36598 -0.03755 0.84692
C09 C 0.23933 -0.07607 0.68849
C10 C 0.30147 0.0021 0.97053
H10 H 0.16526 0.0046 0.94051
O1 O 0.94862 0.07559 1.33275
N1 N 0.35692 0.07881 1.23643
H1 H 0.23148 0.07983 1.21444
C01 C 0.79809 0.15485 1.60387
H01 H 0.93395 0.15504 1.62842
C02 C 0.72205 0.19316 1.72753
H02 H 0.804 0.21858 1.83519
C03 C 0.50864 0.19272 1.68469
H03 H 0.45263 0.21723 1.77636
C04 C 0.39171 0.15575 1.50811
H04 H 0.25401 0.15672 1.46866
C05 C 0.4687 0.11729 1.38534
C06 C 0.68295 0.11533 1.44359
C07 C 0.42074 0.0387 1.11936
C08 C 0.63402 0.03755 1.15308
C09 C 0.76067 0.07607 1.31151
C10 C 0.69853 0.9979 0.02947
H10 H 0.83474 0.9954 0.05949
O1 O 0.05138 0.92441 -0.33275
N1 N 0.64308 0.92119 -0.23643
H1 H 0.76852 0.92017 -0.21444
C01 C 0.20191 0.84515 -0.60387
H01 H 0.06605 0.84496 -0.62842
C02 C 0.27795 0.80684 -0.72753
H02 H 0.196 0.78142 -0.83519
C03 C 0.49136 0.80728 -0.68469
H03 H 0.54737 0.78277 -0.77636
C04 C 0.60829 0.84425 -0.50811
H04 H 0.74599 0.84328 -0.46866
C05 C 0.5313 0.88271 -0.38534
C06 C 0.31705 0.88467 -0.44359
C07 C 0.57926 0.9613 -0.11936
C08 C 0.36598 0.96245 -0.15308
C09 C 0.23933 0.92393 -0.31151
C10 C 0.30147 1.0021 -0.02947
H10 H 0.16526 1.0046 -0.05949
O1 O 0.94862 1.07559 0.33275
N1 N 0.35692 1.07881 0.23643
H1 H 0.23148 1.07983 0.21444
C01 C 0.79809 1.15485 0.60387
H01 H 0.93395 1.15504 0.62842
C02 C 0.72205 1.19316 0.72753
H02 H 0.804 1.21858 0.83519
C03 C 0.50864 1.19272 0.68469
H03 H 0.45263 1.21723 0.77636
C04 C 0.39171 1.15575 0.50811
H04 H 0.25401 1.15672 0.46866
C05 C 0.4687 1.11729 0.38534
C06 C 0.68295 1.11533 0.44359
C07 C 0.42074 1.0387 0.11936
C08 C 0.63402 1.03755 0.15308
C09 C 0.76067 1.07607 0.31151
C10 C 0.69853 0.9979 1.02947
H10 H 0.83474 0.9954 1.05949
O1 O 0.05138 0.92441 0.66725
N1 N 0.64308 0.92119 0.76357
H1 H 0.76852 0.92017 0.78556
C01 C 0.20191 0.84515 0.39613
H01 H 0.06605 0.84496 0.37158
C02 C 0.27795 0.80684 0.27247
H02 H 0.196 0.78142 0.16481
C03 C 0.49136 0.80728 0.31531
H03 H 0.54737 0.78277 0.22364
C04 C 0.60829 0.84425 0.49189
H04 H 0.74599 0.84328 0.53134
C05 C 0.5313 0.88271 0.61466
C06 C 0.31705 0.88467 0.55641
C07 C 0.57926 0.9613 0.88064
C08 C 0.36598 0.96245 0.84692
C09 C 0.23933 0.92393 0.68849
C10 C 0.30147 1.0021 0.97053
H10 H 0.16526 1.0046 0.94051
O1 O 0.94862 1.07559 1.33275
N1 N 0.35692 1.07881 1.23643
H1 H 0.23148 1.07983 1.21444
C01 C 0.79809 1.15485 1.60387
H01 H 0.93395 1.15504 1.62842
C02 C 0.72205 1.19316 1.72753
H02 H 0.804 1.21858 1.83519
C03 C 0.50864 1.19272 1.68469
H03 H 0.45263 1.21723 1.77636
C04 C 0.39171 1.15575 1.50811
H04 H 0.25401 1.15672 1.46866
C05 C 0.4687 1.11729 1.38534
C06 C 0.68295 1.11533 1.44359
C07 C 0.42074 1.0387 1.11936
C08 C 0.63402 1.03755 1.15308
C09 C 0.76067 1.07607 1.31151
C10 C 0.30147 0.4979 0.47053
H10 H 0.16526 0.4954 0.44051
O1 O 0.94862 0.42441 0.83275
N1 N 0.35692 0.42119 0.73643
H1 H 0.23148 0.42017 0.71444
C01 C 0.79809 0.34515 1.10387
H01 H 0.93395 0.34496 1.12842
C02 C 0.72205 0.30684 1.22753
H02 H 0.804 0.28142 1.33519
C03 C 0.50864 0.30728 1.18469
H03 H 0.45263 0.28277 1.27636
C04 C 0.39171 0.34425 1.00811
H04 H 0.25401 0.34328 0.96866
C05 C 0.4687 0.38271 0.88534
C06 C 0.68295 0.38467 0.94359
C07 C 0.42074 0.4613 0.61936
C08 C 0.63402 0.46245 0.65308
C09 C 0.76067 0.42393 0.81151
C10 C 0.69853 0.5021 0.52947
H10 H 0.83474 0.5046 0.55949
O1 O 0.05138 0.57559 0.16725
N1 N 0.64308 0.57881 0.26357
H1 H 0.76852 0.57983 0.28556
C01 C 0.20191 0.65485 -0.10387
H01 H 0.06605 0.65504 -0.12842
C02 C 0.27795 0.69316 -0.22753
H02 H 0.196 0.71858 -0.33519
C03 C 0.49136 0.69272 -0.18469
H03 H 0.54737 0.71723 -0.27636
C04 C 0.60829 0.65575 -0.00811
H04 H 0.74599 0.65672 0.03134
C05 C 0.5313 0.61729 0.11466
C06 C 0.31705 0.61533 0.05641
C07 C 0.57926 0.5387 0.38064
C08 C 0.36598 0.53755 0.34692
C09 C 0.23933 0.57607 0.18849

#END
